.386
.model FLAT, C

.data
	a:	dd	16
	b:	dd	3

.code
main proc
	finit
	fild	a
	fild	b
	fadd
	fistp	b
	mov		eax, 0
	ret
main endp

end main