.386
.model FLAT, C

.data
	const_1	dd	1
	const_3	dd	3
	a	dd	13
	b	dd	141

.code
main proc
	fild	const_1
	fild	const_3
	fadd
	fild	const_3
	fadd
	fistp	b
	mov		eax, 0
	ret
main endp

end main
	jmp lbl_ex_m1
lbl_eq_m1:
	fild	const_1
	fild	const_3
	fadd
	fild	const_3
	fadd
	fistp	b
lbl_ex_m1:
afterelse_m2:
	mov		eax, 0
	ret
main endp

end mainb
afterelse_m2:
	fild	a
	fild	b
	fcomp
	fistp	tmp_var_int_m4
	fstsw	ax
	sahf
	je lbl_eq_m4
	fldz
	jmp lbl_ex_m4
lbl_eq_m4:
	fild	const_2
	fistp	a
lbl_ex_m4:
afterelse_m5:
	mov		eax, 0
	ret
main endp

end main