.386
.model FLAT, C

.data
	const_13	dd	13
	tmp_var_int_m1	dd	0
	a	dd	100
	b	dd	13

.code
main proc
	finit
	fild	a
	fild	b
	fcomp
	fistp	tmp_var_int_m1
	fstsw	ax
	sahf
	je lbl_eq_m1
	fldz
	jmp lbl_ex_m1
lbl_eq_m1:
	fild	const_13
	fistp	b
	mov		eax, 0
	ret
main endp

end main